*HEADING
cubit(abaqus/test/unit/meshconvert/python/data/abaqus_facet.inp): 12/19/2013: 12
version: 13.1
**
********************************** P A R T S **********************************
*PART, NAME=Part-Default
**
********************************** N O D E S **********************************
*NODE, NSET=ALLNODES
    1620,    5.000000e-01,    0.000000e+00,   -5.000000e-01
    1621,    4.330127e-01,   -2.500000e-01,   -5.000000e-01
    1622,    2.500000e-01,   -4.330127e-01,   -5.000000e-01
    1623,    3.061617e-17,   -5.000000e-01,   -5.000000e-01
    1624,   -2.500000e-01,   -4.330127e-01,   -5.000000e-01
    1625,   -4.330127e-01,   -2.500000e-01,   -5.000000e-01
    1626,   -5.000000e-01,   -6.123234e-17,   -5.000000e-01
    1627,   -4.330127e-01,    2.500000e-01,   -5.000000e-01
    1628,   -2.500000e-01,    4.330127e-01,   -5.000000e-01
    1629,   -9.184851e-17,    5.000000e-01,   -5.000000e-01
    1630,    2.500000e-01,    4.330127e-01,   -5.000000e-01
    1631,    4.330127e-01,    2.500000e-01,   -5.000000e-01
    1632,    5.000000e-01,    0.000000e+00,    5.000000e-01
    1633,    4.330127e-01,    2.500000e-01,    5.000000e-01
    1634,    2.500000e-01,    4.330127e-01,    5.000000e-01
    1635,    3.061617e-17,    5.000000e-01,    5.000000e-01
    1636,   -2.500000e-01,    4.330127e-01,    5.000000e-01
    1637,   -4.330127e-01,    2.500000e-01,    5.000000e-01
    1638,   -5.000000e-01,    6.123234e-17,    5.000000e-01
    1639,   -4.330127e-01,   -2.500000e-01,    5.000000e-01
** ... 126 like lines cut
**
********************************** E L E M E N T S ****************************
*ELEMENT, TYPE=C3D4, ELSET=EB4
     441,    1712,    1713,    1714,    1715
     442,    1644,    1715,    1712,    1716
     443,    1707,    1706,    1710,    1717
     444,    1668,    1712,    1714,    1718
     445,    1712,    1716,    1715,    1718
     446,    1713,    1719,    1714,    1720
     447,    1714,    1720,    1719,    1721
     448,    1718,    1720,    1721,    1722
     449,    1714,    1718,    1720,    1721
     450,    1670,    1721,    1714,    1723
     451,    1639,    1724,    1709,    1725
     452,    1671,    1721,    1719,    1726
     453,    1648,    1722,    1721,    1725
     454,    1721,    1725,    1722,    1726
     455,    1713,    1727,    1728,    1729
     456,    1714,    1729,    1728,    1730
     457,    1668,    1712,    1677,    1728
     458,    1677,    1728,    1727,    1731
     459,    1649,    1650,    1638,    1724
     460,    1656,    1667,    1728,    1730
** ... 520 like lines cut
**
********************************** S I D E S E T S **********************************
*ELSET, ELSET=SS1_S1
     487,     550,     554,     647,     651,     684,     686,     694,     696,     698,
     732,     733,     737,     739,     740,     742,     748,     771,     776,     777,
     778,     786,     794,     806,     816,     823,     840,     864,     880,     883,
     886,     897,     899,     900,     907,     936,     965
*ELSET, ELSET=SS1_S4
     813,     822,     890,     902,     960
*SURFACE, NAME=SS1
SS1_S1, S1
SS1_S4, S4
*ELSET, ELSET=SS2_S1
     459,     468,     470,     524,     527,     531,     536,     555,     584,     616,
     646,     721,     734,     735,     746,     756,     763,     770,     772,     784,
     793,     798,     801,     803,     807,     810,     811,     812,     819,     822,
     824,     825,     826,     827,     828,     831,     834,     836,     841,     851,
     852,     853,     854,     860,     861,     862,     869,     870,     871,     872,
     874,     875,     876,     878,     884,     887,     889,     890,     891,     901,
     902,     908,     909,     910,     916,     917,     918,     919,     920,     923,
     924,     925,     930,     931,     935,     938,     939,     942,     943,     945,
     947,     948,     951,     952,     954,     956,     957,     960,     963,     964,
     968,     971,     972,     975,     977,     980
*SURFACE, NAME=SS2
SS2_S1, S1
*ELSET, ELSET=SS3_S1
     443,     540,     642,     643,     649,     655,     659,     660,     668,     687,
     704,     706,     727,     743,     749,     750,     753,     761,     764,     767,
     779,     837,     839,     842,     847,     855,     894,     896,     905,     911,
     912,     913,     914,     922,     929,     937,     940,     958,     959,     970,
     974
*ELSET, ELSET=SS3_S4
     919
*SURFACE, NAME=SS3
SS3_S1, S1
SS3_S4, S4
**
********************************** P R O P E R T I E S ************************
*SOLID SECTION, ELSET=EB4, MATERIAL=Default-Steel
**
*END PART
**
**
**
********************************** E N D   P A R T S **********************************
**
**
********************************** A S S E M B L Y ************************************
**
*ASSEMBLY, NAME=ASSEMBLY1
**
*INSTANCE, NAME=Part-Default_1, PART=Part-Default
*END INSTANCE
**
*END ASSEMBLY
**
**
**
*MATERIAL, NAME = Default-Steel
*ELASTIC, TYPE=ISOTROPIC
2.068000e+05, 2.900000e-01
*DENSITY
7.000000e-06
*CONDUCTIVITY,TYPE=ISO
4.500000e-02
*SPECIFIC HEAT
5.000000e+02
**
**
************************************** H I S T O R Y *************************************
**
*PREPRINT
**
**************************************** S T E P 1 ***************************************
*STEP,INC=100,NAME=Default Set
**
*STATIC
1, 1, 1e-05, 1
**
**
**
**
*END STEP
