*HEADING
Test input
*Node, NSET=CORNER
100, 0., 0., 0
180, 1., 0., 0
810, 0., 1., 0
818, 1., 1., 0
200, 10., 10., 10
201, 10., 10., 11
** Note that this node is not in a set
*NODE
1000, 0.0, 0.0, 0.0
1001, 1., 0., 0
1002, 0., 1., 0
1003, 1., 1., 0
1004, 10., 10., 10
1005, 10., 10., 11
*NGEN, NSET=LEFT
100, 810, 200
*NGEN, NSET=RIGHT
180, 818, 200
*NFILL, NSET=MIDDLE
LEFT, RIGHT, 80, 1
*NSET, NSET=ALL
LEFT, RIGHT, MIDDLE, CORNER
**
**
*ELEMENT, TYPE=C3D4, ELSET=FIRST
1, 100, 180, 810, 818
*ELEMENT, TYPE=C3D4, ELSET=SECOND
2, 100, 180, 200, 201
** Note that this element is not in a set
*ELEMENT, TYPE=C3D4
3, 810, 818, 200, 201
*ELGEN, ELSET=MOST
1, 40, 2, 1, 40, 200, 40, 1
*ELSET, ELSET=ALL
FIRST, MOST
**
**
*SOLID SECTION, ELSET=FIRST, MATERIAL=HY100
*MATERIAL,NAME=HY100
*ELASTIC
180.0E+09,0.3
*DENSITY
7.7E+3
*SOLID SECTION, ELSET=SECOND, MATERIAL=HY200
*MATERIAL,NAME=HY200
*MATERIAL,NAME=HY300
**
**
*NSET, NSET=CENTER, GENERATE
3736,4536,200
3738,4538,200
3740,4540,200
3742,4542,200
3744,4544,200
**
**
*BOUNDARY
LEFT, 1, 5, 0.
RIGHT, 1, 5, 0.
**
**
*PREPRINT, MODEL=NO, ECHO=NO
*AMPLITUDE, NAME=ATONCE
0., 0., 1e-6, 1., 2e-6, 1., 3e-6, 0., 5, 0.
*STEP, NLGEOM=YES
*DYNAMIC, EXPLICIT
 , 1.e-4,
*CLOAD, AMPLITUDE=ATONCE
CENTER, 3, -1.e8
*HISTORY OUTPUT, TIME INTERVAL=1e-4
*NODE HISTORY, NSET=ALL
U
*FILE OUTPUT, NUMBER INTERVAL=1
*NODE FILE, NSET=ALL
U
*END STEP
